notebook_tutorials/synthetic_net_opendss/master_sample_49.dss
clear
new circuit.synthetic_net basekv=157.6864406779661 pu=1.0 phases=3
edit Vsource.source bus1=bus_68.1.2.3

!---------------- LINES ----------------

new linecode.LCode_0 nphases=1 rmatrix=[0.872373] xmatrix=[1.242115] units=km
new line.line_0 bus1=bus_0.2 bus2=bus_1.2 linecode=LCode_0 length=1.0 units=km
new linecode.LCode_1 nphases=1 rmatrix=[1.003874] xmatrix=[1.362086] units=km
new line.line_1 bus1=bus_0.2 bus2=bus_2.2 linecode=LCode_1 length=1.0 units=km
new linecode.LCode_2 nphases=1 rmatrix=[0.605383] xmatrix=[1.242115] units=km
new line.line_2 bus1=bus_3.2 bus2=bus_4.2 linecode=LCode_2 length=1.0 units=km
new linecode.LCode_3 nphases=1 rmatrix=[0.586029] xmatrix=[1.283165] units=km
new line.line_3 bus1=bus_2.2 bus2=bus_4.2 linecode=LCode_3 length=1.0 units=km
new linecode.LCode_4 nphases=1 rmatrix=[0.531709] xmatrix=[1.242115] units=km
new line.line_4 bus1=bus_4.2 bus2=bus_5.2 linecode=LCode_4 length=1.0 units=km
new linecode.LCode_5 nphases=1 rmatrix=[0.789931] xmatrix=[1.266807] units=km
new line.line_5 bus1=bus_5.2 bus2=bus_6.2 linecode=LCode_5 length=1.0 units=km
new linecode.LCode_6 nphases=1 rmatrix=[0.876731] xmatrix=[1.242115] units=km
new line.line_6 bus1=bus_7.2 bus2=bus_8.2 linecode=LCode_6 length=1.0 units=km
new linecode.LCode_7 nphases=1 rmatrix=[0.579630] xmatrix=[1.242115] units=km
new line.line_7 bus1=bus_8.2 bus2=bus_9.2 linecode=LCode_7 length=1.0 units=km
new linecode.LCode_8 nphases=1 rmatrix=[0.592492] xmatrix=[1.242115] units=km
new line.line_8 bus1=bus_3.2 bus2=bus_10.2 linecode=LCode_8 length=1.0 units=km
new linecode.LCode_9 nphases=1 rmatrix=[0.688161] xmatrix=[1.257250] units=km
new line.line_9 bus1=bus_4.2 bus2=bus_10.2 linecode=LCode_9 length=1.0 units=km
new linecode.LCode_10 nphases=1 rmatrix=[0.859220] xmatrix=[1.336858] units=km
new line.line_10 bus1=bus_10.2 bus2=bus_11.2 linecode=LCode_10 length=1.0 units=km
new linecode.LCode_11 nphases=1 rmatrix=[0.696214] xmatrix=[1.495379] units=km
new line.line_11 bus1=bus_1.2 bus2=bus_11.2 linecode=LCode_11 length=1.0 units=km
new linecode.LCode_12 nphases=1 rmatrix=[0.658059] xmatrix=[1.350327] units=km
new line.line_12 bus1=bus_2.2 bus2=bus_11.2 linecode=LCode_12 length=1.0 units=km
new linecode.LCode_13 nphases=1 rmatrix=[0.348950] xmatrix=[1.312633] units=km
new line.line_13 bus1=bus_6.2 bus2=bus_11.2 linecode=LCode_13 length=1.0 units=km
new linecode.LCode_14 nphases=1 rmatrix=[0.829305] xmatrix=[1.242115] units=km
new line.line_14 bus1=bus_10.2 bus2=bus_12.2 linecode=LCode_14 length=1.0 units=km
new linecode.LCode_15 nphases=1 rmatrix=[0.531495] xmatrix=[1.242115] units=km
new line.line_15 bus1=bus_11.2 bus2=bus_13.2 linecode=LCode_15 length=1.0 units=km
new linecode.LCode_16 nphases=1 rmatrix=[0.898728] xmatrix=[1.286147] units=km
new line.line_16 bus1=bus_12.2 bus2=bus_14.2 linecode=LCode_16 length=1.0 units=km
new linecode.LCode_17 nphases=1 rmatrix=[1.041152] xmatrix=[1.302382] units=km
new line.line_17 bus1=bus_13.2 bus2=bus_14.2 linecode=LCode_17 length=1.0 units=km
new linecode.LCode_18 nphases=1 rmatrix=[0.811789] xmatrix=[1.335852] units=km
new line.line_18 bus1=bus_11.2 bus2=bus_15.2 linecode=LCode_18 length=1.0 units=km
new linecode.LCode_19 nphases=1 rmatrix=[0.502672] xmatrix=[1.244596] units=km
new line.line_19 bus1=bus_14.2 bus2=bus_16.2 linecode=LCode_19 length=1.0 units=km
new linecode.LCode_20 nphases=1 rmatrix=[0.541911] xmatrix=[1.433654] units=km
new line.line_20 bus1=bus_15.2 bus2=bus_16.2 linecode=LCode_20 length=1.0 units=km
new linecode.LCode_21 nphases=1 rmatrix=[0.578564] xmatrix=[1.336964] units=km
new line.line_21 bus1=bus_16.2 bus2=bus_17.2 linecode=LCode_21 length=1.0 units=km
new linecode.LCode_22 nphases=1 rmatrix=[0.848089] xmatrix=[1.438166] units=km
new line.line_22 bus1=bus_17.2 bus2=bus_18.2 linecode=LCode_22 length=1.0 units=km
new linecode.LCode_23 nphases=1 rmatrix=[0.847785] xmatrix=[1.360043] units=km
new line.line_23 bus1=bus_18.2 bus2=bus_19.2 linecode=LCode_23 length=1.0 units=km
new linecode.LCode_24 nphases=1 rmatrix=[0.674074] xmatrix=[1.242115] units=km
new line.line_24 bus1=bus_14.2 bus2=bus_18.2 linecode=LCode_24 length=1.0 units=km
new linecode.LCode_25 nphases=2 rmatrix=[0.687571 | 0.059160 0.687571] xmatrix=[1.437315 | 1.024695 1.437315] units=km
new line.line_25 bus1=bus_19.2.3 bus2=bus_20.2.3 linecode=LCode_25 length=1.0 units=km
new linecode.LCode_26 nphases=2 rmatrix=[0.772949 | 0.059160 0.772949] xmatrix=[1.242115 | 1.024695 1.242115] units=km
new line.line_26 bus1=bus_20.2.3 bus2=bus_21.2.3 linecode=LCode_26 length=1.0 units=km
new linecode.LCode_27 nphases=2 rmatrix=[0.442238 | 0.059160 0.442238] xmatrix=[1.242115 | 1.024695 1.242115] units=km
new line.line_27 bus1=bus_21.2.3 bus2=bus_22.2.3 linecode=LCode_27 length=1.0 units=km
new linecode.LCode_28 nphases=2 rmatrix=[1.006021 | 0.059160 1.006021] xmatrix=[1.242115 | 1.024695 1.242115] units=km
new line.line_28 bus1=bus_22.2.3 bus2=bus_23.2.3 linecode=LCode_28 length=1.0 units=km
new linecode.LCode_29 nphases=2 rmatrix=[0.520294 | 0.059160 0.520294] xmatrix=[1.442774 | 1.024695 1.442774] units=km
new line.line_29 bus1=bus_22.2.3 bus2=bus_24.2.3 linecode=LCode_29 length=1.0 units=km
new linecode.LCode_30 nphases=2 rmatrix=[0.817116 | 0.059160 0.817116] xmatrix=[1.242115 | 1.024695 1.242115] units=km
new line.line_30 bus1=bus_24.2.3 bus2=bus_26.2.3 linecode=LCode_30 length=1.0 units=km
new linecode.LCode_31 nphases=2 rmatrix=[0.877685 | 0.059160 0.877685] xmatrix=[1.444952 | 1.024695 1.444952] units=km
new line.line_31 bus1=bus_26.2.3 bus2=bus_27.2.3 linecode=LCode_31 length=1.0 units=km
new linecode.LCode_32 nphases=1 rmatrix=[1.012292] xmatrix=[1.302938] units=km
new line.line_32 bus1=bus_27.3 bus2=bus_28.3 linecode=LCode_32 length=1.0 units=km
new linecode.LCode_33 nphases=1 rmatrix=[1.043017] xmatrix=[1.242115] units=km
new line.line_33 bus1=bus_7.2 bus2=bus_29.2 linecode=LCode_33 length=1.0 units=km
new linecode.LCode_34 nphases=1 rmatrix=[1.112044] xmatrix=[1.242115] units=km
new line.line_34 bus1=bus_25.2 bus2=bus_29.2 linecode=LCode_34 length=1.0 units=km
new linecode.LCode_36 nphases=1 rmatrix=[1.108713] xmatrix=[1.256564] units=km
new line.line_36 bus1=bus_28.3 bus2=bus_30.3 linecode=LCode_36 length=1.0 units=km
new linecode.LCode_37 nphases=2 rmatrix=[0.443150 | 0.059160 0.443150] xmatrix=[1.242115 | 1.024695 1.242115] units=km
new line.line_37 bus1=bus_22.2.3 bus2=bus_31.2.3 linecode=LCode_37 length=1.0 units=km
new linecode.LCode_38 nphases=1 rmatrix=[0.600346] xmatrix=[1.242115] units=km
new line.line_38 bus1=bus_30.3 bus2=bus_31.3 linecode=LCode_38 length=1.0 units=km
new linecode.LCode_39 nphases=2 rmatrix=[1.019809 | 0.059160 1.019809] xmatrix=[1.242115 | 1.024695 1.242115] units=km
new line.line_39 bus1=bus_26.2.3 bus2=bus_31.2.3 linecode=LCode_39 length=1.0 units=km
new linecode.LCode_40 nphases=1 rmatrix=[0.236647] xmatrix=[1.732682] units=km
new line.line_40 bus1=bus_14.2 bus2=bus_32.2 linecode=LCode_40 length=1.0 units=km
new linecode.LCode_41 nphases=1 rmatrix=[0.265568] xmatrix=[1.251768] units=km
new line.line_41 bus1=bus_18.2 bus2=bus_33.2 linecode=LCode_41 length=1.0 units=km
new linecode.LCode_42 nphases=1 rmatrix=[0.681318] xmatrix=[1.295170] units=km
new line.line_42 bus1=bus_34.2 bus2=bus_35.2 linecode=LCode_42 length=1.0 units=km
new linecode.LCode_43 nphases=1 rmatrix=[1.282953] xmatrix=[1.242115] units=km
new line.line_43 bus1=bus_34.2 bus2=bus_36.2 linecode=LCode_43 length=1.0 units=km
new linecode.LCode_44 nphases=1 rmatrix=[0.906844] xmatrix=[1.242115] units=km
new line.line_44 bus1=bus_32.2 bus2=bus_36.2 linecode=LCode_44 length=1.0 units=km
new linecode.LCode_45 nphases=1 rmatrix=[0.524454] xmatrix=[1.242115] units=km
new line.line_45 bus1=bus_33.2 bus2=bus_35.2 linecode=LCode_45 length=1.0 units=km
new linecode.LCode_46 nphases=1 rmatrix=[0.932031] xmatrix=[1.242115] units=km
new line.line_46 bus1=bus_33.2 bus2=bus_36.2 linecode=LCode_46 length=1.0 units=km
new linecode.LCode_47 nphases=1 rmatrix=[1.074627] xmatrix=[1.434631] units=km
new line.line_47 bus1=bus_36.2 bus2=bus_38.2 linecode=LCode_47 length=1.0 units=km
new linecode.LCode_48 nphases=1 rmatrix=[0.839005] xmatrix=[1.465078] units=km
new line.line_48 bus1=bus_36.2 bus2=bus_39.2 linecode=LCode_48 length=1.0 units=km
new linecode.LCode_49 nphases=1 rmatrix=[0.722031] xmatrix=[1.248654] units=km
new line.line_49 bus1=bus_29.2 bus2=bus_37.2 linecode=LCode_49 length=1.0 units=km
new linecode.LCode_50 nphases=1 rmatrix=[0.822684] xmatrix=[1.331049] units=km
new line.line_50 bus1=bus_38.2 bus2=bus_39.2 linecode=LCode_50 length=1.0 units=km
new linecode.LCode_51 nphases=1 rmatrix=[1.132988] xmatrix=[1.325282] units=km
new line.line_51 bus1=bus_39.2 bus2=bus_40.2 linecode=LCode_51 length=1.0 units=km
new linecode.LCode_52 nphases=1 rmatrix=[0.908567] xmatrix=[1.242115] units=km
new line.line_52 bus1=bus_39.2 bus2=bus_41.2 linecode=LCode_52 length=1.0 units=km
new linecode.LCode_53 nphases=2 rmatrix=[1.133981 | 0.059160 1.133981] xmatrix=[1.345865 | 1.024695 1.345865] units=km
new line.line_53 bus1=bus_40.1.2 bus2=bus_41.1.2 linecode=LCode_53 length=1.0 units=km
new linecode.LCode_54 nphases=2 rmatrix=[1.209661 | 0.059160 1.209661] xmatrix=[1.289982 | 1.024695 1.289982] units=km
new line.line_54 bus1=bus_42.1.2 bus2=bus_43.1.2 linecode=LCode_54 length=1.0 units=km
new linecode.LCode_55 nphases=1 rmatrix=[0.256815] xmatrix=[1.242115] units=km
new line.line_55 bus1=bus_33.2 bus2=bus_42.2 linecode=LCode_55 length=1.0 units=km
new linecode.LCode_56 nphases=2 rmatrix=[0.302547 | 0.059160 0.302547] xmatrix=[1.242115 | 1.024695 1.242115] units=km
new line.line_56 bus1=bus_43.1.2 bus2=bus_44.1.2 linecode=LCode_56 length=1.0 units=km
new linecode.LCode_57 nphases=1 rmatrix=[0.464856] xmatrix=[1.383178] units=km
new line.line_57 bus1=bus_44.1 bus2=bus_45.1 linecode=LCode_57 length=1.0 units=km
new linecode.LCode_58 nphases=2 rmatrix=[0.333861 | 0.059160 0.333861] xmatrix=[1.242115 | 0.940589 1.242115] units=km
new line.line_58 bus1=bus_45.1.3 bus2=bus_46.1.3 linecode=LCode_58 length=1.0 units=km
new linecode.LCode_59 nphases=1 rmatrix=[0.508059] xmatrix=[1.431945] units=km
new line.line_59 bus1=bus_45.1 bus2=bus_47.1 linecode=LCode_59 length=1.0 units=km
new linecode.LCode_60 nphases=1 rmatrix=[1.336866] xmatrix=[1.242115] units=km
new line.line_60 bus1=bus_46.1 bus2=bus_48.1 linecode=LCode_60 length=1.0 units=km
new linecode.LCode_61 nphases=2 rmatrix=[0.511766 | 0.059160 0.511766] xmatrix=[1.527492 | 1.024695 1.527492] units=km
new line.line_61 bus1=bus_41.1.2 bus2=bus_48.1.2 linecode=LCode_61 length=1.0 units=km
new linecode.LCode_62 nphases=2 rmatrix=[0.884391 | 0.059160 0.884391] xmatrix=[1.522491 | 1.024695 1.522491] units=km
new line.line_62 bus1=bus_41.1.2 bus2=bus_48.1.2 linecode=LCode_62 length=1.0 units=km
new linecode.LCode_63 nphases=2 rmatrix=[0.503611 | 0.059160 0.503611] xmatrix=[1.536957 | 1.024695 1.536957] units=km
new line.line_63 bus1=bus_44.1.2 bus2=bus_48.1.2 linecode=LCode_63 length=1.0 units=km
new linecode.LCode_64 nphases=2 rmatrix=[0.666743 | 0.059160 0.666743] xmatrix=[1.420330 | 1.024695 1.420330] units=km
new line.line_64 bus1=bus_47.1.2 bus2=bus_48.1.2 linecode=LCode_64 length=1.0 units=km
new linecode.LCode_65 nphases=2 rmatrix=[0.270201 | 0.059160 0.270201] xmatrix=[1.242115 | 1.024695 1.242115] units=km
new line.line_65 bus1=bus_48.1.2 bus2=bus_49.1.2 linecode=LCode_65 length=1.0 units=km
new linecode.LCode_66 nphases=1 rmatrix=[0.269098] xmatrix=[1.682466] units=km
new line.line_66 bus1=bus_48.2 bus2=bus_50.2 linecode=LCode_66 length=1.0 units=km
new linecode.LCode_67 nphases=1 rmatrix=[0.669639] xmatrix=[1.242115] units=km
new line.line_67 bus1=bus_50.2 bus2=bus_51.2 linecode=LCode_67 length=1.0 units=km
new linecode.LCode_69 nphases=1 rmatrix=[1.041368] xmatrix=[1.335573] units=km
new line.line_69 bus1=bus_52.1 bus2=bus_53.1 linecode=LCode_69 length=1.0 units=km
new linecode.LCode_70 nphases=1 rmatrix=[1.052193] xmatrix=[1.242115] units=km
new line.line_70 bus1=bus_48.1 bus2=bus_53.1 linecode=LCode_70 length=1.0 units=km
new linecode.LCode_71 nphases=1 rmatrix=[0.260740] xmatrix=[1.242115] units=km
new line.line_71 bus1=bus_48.1 bus2=bus_53.1 linecode=LCode_71 length=1.0 units=km
new linecode.LCode_72 nphases=1 rmatrix=[0.201477] xmatrix=[1.375658] units=km
new line.line_72 bus1=bus_53.1 bus2=bus_54.1 linecode=LCode_72 length=1.0 units=km
new linecode.LCode_73 nphases=1 rmatrix=[0.666169] xmatrix=[1.242115] units=km
new line.line_73 bus1=bus_53.1 bus2=bus_55.1 linecode=LCode_73 length=1.0 units=km
new linecode.LCode_74 nphases=1 rmatrix=[0.602306] xmatrix=[1.417156] units=km
new line.line_74 bus1=bus_54.1 bus2=bus_55.1 linecode=LCode_74 length=1.0 units=km
new linecode.LCode_75 nphases=1 rmatrix=[0.311657] xmatrix=[1.242115] units=km
new line.line_75 bus1=bus_55.1 bus2=bus_56.1 linecode=LCode_75 length=1.0 units=km
new linecode.LCode_76 nphases=2 rmatrix=[0.724391 | 0.059160 0.724391] xmatrix=[1.242115 | 1.024695 1.242115] units=km
new line.line_76 bus1=bus_49.1.2 bus2=bus_56.1.2 linecode=LCode_76 length=1.0 units=km
new linecode.LCode_78 nphases=1 rmatrix=[0.284977] xmatrix=[1.363506] units=km
new line.line_78 bus1=bus_50.2 bus2=bus_57.2 linecode=LCode_78 length=1.0 units=km
new linecode.LCode_79 nphases=1 rmatrix=[1.206391] xmatrix=[1.242115] units=km
new line.line_79 bus1=bus_53.1 bus2=bus_58.1 linecode=LCode_79 length=1.0 units=km
new linecode.LCode_80 nphases=1 rmatrix=[0.627720] xmatrix=[1.318396] units=km
new line.line_80 bus1=bus_55.1 bus2=bus_58.1 linecode=LCode_80 length=1.0 units=km
new linecode.LCode_81 nphases=1 rmatrix=[0.449549] xmatrix=[1.242115] units=km
new line.line_81 bus1=bus_55.1 bus2=bus_58.1 linecode=LCode_81 length=1.0 units=km
new linecode.LCode_82 nphases=1 rmatrix=[0.814803] xmatrix=[1.315896] units=km
new line.line_82 bus1=bus_54.1 bus2=bus_58.1 linecode=LCode_82 length=1.0 units=km
new linecode.LCode_83 nphases=1 rmatrix=[0.760850] xmatrix=[1.242115] units=km
new line.line_83 bus1=bus_58.1 bus2=bus_59.1 linecode=LCode_83 length=1.0 units=km
new linecode.LCode_84 nphases=1 rmatrix=[0.317205] xmatrix=[1.242115] units=km
new line.line_84 bus1=bus_58.1 bus2=bus_60.1 linecode=LCode_84 length=1.0 units=km
new linecode.LCode_85 nphases=1 rmatrix=[0.914600] xmatrix=[1.476604] units=km
new line.line_85 bus1=bus_59.1 bus2=bus_60.1 linecode=LCode_85 length=1.0 units=km
new linecode.LCode_88 nphases=1 rmatrix=[0.793144] xmatrix=[1.503884] units=km
new line.line_88 bus1=bus_62.3 bus2=bus_63.3 linecode=LCode_88 length=1.0 units=km
new linecode.LCode_90 nphases=1 rmatrix=[1.084400] xmatrix=[1.415230] units=km
new line.line_90 bus1=bus_63.3 bus2=bus_64.3 linecode=LCode_90 length=1.0 units=km
new linecode.LCode_91 nphases=1 rmatrix=[0.583728] xmatrix=[1.242115] units=km
new line.line_91 bus1=bus_48.2 bus2=bus_65.2 linecode=LCode_91 length=1.0 units=km
new linecode.LCode_92 nphases=1 rmatrix=[0.160473] xmatrix=[1.557890] units=km
new line.line_92 bus1=bus_48.2 bus2=bus_65.2 linecode=LCode_92 length=1.0 units=km
new linecode.LCode_93 nphases=1 rmatrix=[0.300401] xmatrix=[1.242115] units=km
new line.line_93 bus1=bus_61.2 bus2=bus_65.2 linecode=LCode_93 length=1.0 units=km
new linecode.LCode_94 nphases=1 rmatrix=[0.389309] xmatrix=[1.410930] units=km
new line.line_94 bus1=bus_61.2 bus2=bus_66.2 linecode=LCode_94 length=1.0 units=km
new linecode.LCode_95 nphases=1 rmatrix=[1.203823] xmatrix=[1.638990] units=km
new line.line_95 bus1=bus_65.2 bus2=bus_66.2 linecode=LCode_95 length=1.0 units=km
new linecode.LCode_96 nphases=2 rmatrix=[0.898152 | 0.059160 0.898152] xmatrix=[1.267677 | 0.940589 1.267677] units=km
new line.line_96 bus1=bus_46.1.3 bus2=bus_68.1.3 linecode=LCode_96 length=1.0 units=km
new linecode.LCode_97 nphases=2 rmatrix=[0.952538 | 0.059160 0.952538] xmatrix=[1.645532 | 1.024695 1.645532] units=km
new line.line_97 bus1=bus_48.1.2 bus2=bus_68.1.2 linecode=LCode_97 length=1.0 units=km
new linecode.LCode_98 nphases=2 rmatrix=[0.927621 | 0.059160 0.927621] xmatrix=[1.413211 | 1.024695 1.413211] units=km
new line.line_98 bus1=bus_68.2.3 bus2=bus_69.2.3 linecode=LCode_98 length=1.0 units=km
new linecode.LCode_99 nphases=2 rmatrix=[0.804517 | 0.059160 0.804517] xmatrix=[1.663340 | 1.024695 1.663340] units=km
new line.line_99 bus1=bus_23.2.3 bus2=bus_69.2.3 linecode=LCode_99 length=1.0 units=km
new linecode.LCode_100 nphases=2 rmatrix=[0.205638 | 0.059160 0.205638] xmatrix=[1.451129 | 1.024695 1.451129] units=km
new line.line_100 bus1=bus_69.2.3 bus2=bus_70.2.3 linecode=LCode_100 length=1.0 units=km
new linecode.LCode_101 nphases=2 rmatrix=[0.527615 | 0.059160 0.527615] xmatrix=[1.367533 | 1.024695 1.367533] units=km
new line.line_101 bus1=bus_23.2.3 bus2=bus_71.2.3 linecode=LCode_101 length=1.0 units=km
new linecode.LCode_102 nphases=2 rmatrix=[0.251872 | 0.059160 0.251872] xmatrix=[1.422157 | 1.024695 1.422157] units=km
new line.line_102 bus1=bus_70.2.3 bus2=bus_71.2.3 linecode=LCode_102 length=1.0 units=km
new linecode.LCode_103 nphases=2 rmatrix=[0.221507 | 0.059160 0.221507] xmatrix=[1.676270 | 1.024695 1.676270] units=km
new line.line_103 bus1=bus_70.2.3 bus2=bus_72.2.3 linecode=LCode_103 length=1.0 units=km
new linecode.LCode_104 nphases=2 rmatrix=[0.811184 | 0.059160 0.811184] xmatrix=[1.242115 | 1.024695 1.242115] units=km
new line.line_104 bus1=bus_69.2.3 bus2=bus_73.2.3 linecode=LCode_104 length=1.0 units=km
new linecode.LCode_105 nphases=2 rmatrix=[0.734332 | 0.059160 0.734332] xmatrix=[1.398548 | 1.024695 1.398548] units=km
new line.line_105 bus1=bus_69.2.3 bus2=bus_74.2.3 linecode=LCode_105 length=1.0 units=km
new linecode.LCode_106 nphases=2 rmatrix=[0.598763 | 0.059160 0.598763] xmatrix=[1.242115 | 1.024695 1.242115] units=km
new line.line_106 bus1=bus_68.2.3 bus2=bus_74.2.3 linecode=LCode_106 length=1.0 units=km
new linecode.LCode_107 nphases=2 rmatrix=[0.247337 | 0.059160 0.247337] xmatrix=[1.242115 | 1.024695 1.242115] units=km
new line.line_107 bus1=bus_73.2.3 bus2=bus_74.2.3 linecode=LCode_107 length=1.0 units=km
new linecode.LCode_108 nphases=2 rmatrix=[0.802176 | 0.059160 0.802176] xmatrix=[1.242115 | 1.024695 1.242115] units=km
new line.line_108 bus1=bus_75.2.3 bus2=bus_76.2.3 linecode=LCode_108 length=1.0 units=km
new linecode.LCode_109 nphases=2 rmatrix=[0.332151 | 0.059160 0.332151] xmatrix=[1.248334 | 1.024695 1.248334] units=km
new line.line_109 bus1=bus_68.2.3 bus2=bus_76.2.3 linecode=LCode_109 length=1.0 units=km
new linecode.LCode_110 nphases=2 rmatrix=[1.220480 | 0.059160 1.220480] xmatrix=[1.242115 | 1.024695 1.242115] units=km
new line.line_110 bus1=bus_74.2.3 bus2=bus_76.2.3 linecode=LCode_110 length=1.0 units=km
new linecode.LCode_111 nphases=2 rmatrix=[0.186559 | 0.059160 0.186559] xmatrix=[1.292061 | 1.024695 1.292061] units=km
new line.line_111 bus1=bus_76.2.3 bus2=bus_77.2.3 linecode=LCode_111 length=1.0 units=km
new linecode.LCode_112 nphases=2 rmatrix=[0.375230 | 0.059160 0.375230] xmatrix=[1.259864 | 1.024695 1.259864] units=km
new line.line_112 bus1=bus_77.2.3 bus2=bus_78.2.3 linecode=LCode_112 length=1.0 units=km
new linecode.LCode_113 nphases=2 rmatrix=[0.266958 | 0.059160 0.266958] xmatrix=[1.242115 | 1.024695 1.242115] units=km
new line.line_113 bus1=bus_76.2.3 bus2=bus_79.2.3 linecode=LCode_113 length=1.0 units=km
new linecode.LCode_114 nphases=2 rmatrix=[0.995022 | 0.059160 0.995022] xmatrix=[1.295693 | 1.024695 1.295693] units=km
new line.line_114 bus1=bus_76.2.3 bus2=bus_79.2.3 linecode=LCode_114 length=1.0 units=km
new linecode.LCode_115 nphases=2 rmatrix=[0.485590 | 0.059160 0.485590] xmatrix=[1.242115 | 1.024695 1.242115] units=km
new line.line_115 bus1=bus_78.2.3 bus2=bus_79.2.3 linecode=LCode_115 length=1.0 units=km
new linecode.LCode_116 nphases=2 rmatrix=[0.657387 | 0.059160 0.657387] xmatrix=[1.242115 | 1.024695 1.242115] units=km
new line.line_116 bus1=bus_76.2.3 bus2=bus_81.2.3 linecode=LCode_116 length=1.0 units=km
new linecode.LCode_117 nphases=1 rmatrix=[0.629998] xmatrix=[1.242115] units=km
new line.line_117 bus1=bus_81.3 bus2=bus_82.3 linecode=LCode_117 length=1.0 units=km
new linecode.LCode_118 nphases=1 rmatrix=[0.634322] xmatrix=[1.242115] units=km
new line.line_118 bus1=bus_82.3 bus2=bus_83.3 linecode=LCode_118 length=1.0 units=km
new linecode.LCode_119 nphases=1 rmatrix=[0.964525] xmatrix=[1.242115] units=km
new line.line_119 bus1=bus_82.3 bus2=bus_84.3 linecode=LCode_119 length=1.0 units=km
new linecode.LCode_120 nphases=1 rmatrix=[0.901678] xmatrix=[1.260762] units=km
new line.line_120 bus1=bus_83.3 bus2=bus_84.3 linecode=LCode_120 length=1.0 units=km
new linecode.LCode_121 nphases=1 rmatrix=[0.652088] xmatrix=[1.650033] units=km
new line.line_121 bus1=bus_84.3 bus2=bus_85.3 linecode=LCode_121 length=1.0 units=km
new linecode.LCode_122 nphases=1 rmatrix=[0.418981] xmatrix=[1.246386] units=km
new line.line_122 bus1=bus_84.3 bus2=bus_87.3 linecode=LCode_122 length=1.0 units=km
new linecode.LCode_123 nphases=1 rmatrix=[0.642762] xmatrix=[1.242115] units=km
new line.line_123 bus1=bus_84.3 bus2=bus_88.3 linecode=LCode_123 length=1.0 units=km
new linecode.LCode_124 nphases=1 rmatrix=[0.201709] xmatrix=[1.414727] units=km
new line.line_124 bus1=bus_87.3 bus2=bus_88.3 linecode=LCode_124 length=1.0 units=km
new linecode.LCode_125 nphases=1 rmatrix=[0.920211] xmatrix=[1.392921] units=km
new line.line_125 bus1=bus_88.3 bus2=bus_89.3 linecode=LCode_125 length=1.0 units=km
new linecode.LCode_126 nphases=1 rmatrix=[0.698333] xmatrix=[1.326895] units=km
new line.line_126 bus1=bus_88.3 bus2=bus_89.3 linecode=LCode_126 length=1.0 units=km
new linecode.LCode_127 nphases=1 rmatrix=[0.890444] xmatrix=[1.242115] units=km
new line.line_127 bus1=bus_89.3 bus2=bus_90.3 linecode=LCode_127 length=1.0 units=km
new linecode.LCode_128 nphases=1 rmatrix=[0.438786] xmatrix=[1.242115] units=km
new line.line_128 bus1=bus_88.3 bus2=bus_91.3 linecode=LCode_128 length=1.0 units=km
new linecode.LCode_129 nphases=1 rmatrix=[0.949463] xmatrix=[1.242115] units=km
new line.line_129 bus1=bus_88.3 bus2=bus_91.3 linecode=LCode_129 length=1.0 units=km
new linecode.LCode_130 nphases=1 rmatrix=[0.554608] xmatrix=[1.283836] units=km
new line.line_130 bus1=bus_90.3 bus2=bus_91.3 linecode=LCode_130 length=1.0 units=km
new linecode.LCode_131 nphases=1 rmatrix=[0.502828] xmatrix=[1.709818] units=km
new line.line_131 bus1=bus_91.3 bus2=bus_92.3 linecode=LCode_131 length=1.0 units=km
new linecode.LCode_132 nphases=1 rmatrix=[0.211293] xmatrix=[1.242115] units=km
new line.line_132 bus1=bus_91.3 bus2=bus_93.3 linecode=LCode_132 length=1.0 units=km
new linecode.LCode_133 nphases=1 rmatrix=[0.862115] xmatrix=[1.267762] units=km
new line.line_133 bus1=bus_92.3 bus2=bus_93.3 linecode=LCode_133 length=1.0 units=km
new linecode.LCode_134 nphases=1 rmatrix=[0.684677] xmatrix=[1.260479] units=km
new line.line_134 bus1=bus_93.3 bus2=bus_94.3 linecode=LCode_134 length=1.0 units=km
new linecode.LCode_135 nphases=2 rmatrix=[0.276512 | 0.059160 0.276512] xmatrix=[1.344953 | 1.024695 1.344953] units=km
new line.line_135 bus1=bus_79.2.3 bus2=bus_95.2.3 linecode=LCode_135 length=1.0 units=km
new linecode.LCode_136 nphases=2 rmatrix=[0.810724 | 0.059160 0.810724] xmatrix=[1.388787 | 1.024695 1.388787] units=km
new line.line_136 bus1=bus_81.2.3 bus2=bus_95.2.3 linecode=LCode_136 length=1.0 units=km
new linecode.LCode_137 nphases=1 rmatrix=[1.158801] xmatrix=[1.242115] units=km
new line.line_137 bus1=bus_93.3 bus2=bus_95.3 linecode=LCode_137 length=1.0 units=km
new linecode.LCode_138 nphases=2 rmatrix=[1.046573 | 0.059160 1.046573] xmatrix=[1.249556 | 1.024695 1.249556] units=km
new line.line_138 bus1=bus_79.2.3 bus2=bus_96.2.3 linecode=LCode_138 length=1.0 units=km
new linecode.LCode_139 nphases=2 rmatrix=[0.241116 | 0.059160 0.241116] xmatrix=[1.268080 | 1.024695 1.268080] units=km
new line.line_139 bus1=bus_79.2.3 bus2=bus_97.2.3 linecode=LCode_139 length=1.0 units=km
new linecode.LCode_140 nphases=2 rmatrix=[0.219866 | 0.059160 0.219866] xmatrix=[1.682443 | 1.024695 1.682443] units=km
new line.line_140 bus1=bus_79.2.3 bus2=bus_98.2.3 linecode=LCode_140 length=1.0 units=km
new linecode.LCode_141 nphases=1 rmatrix=[0.950826] xmatrix=[1.242115] units=km
new line.line_141 bus1=bus_91.3 bus2=bus_99.3 linecode=LCode_141 length=1.0 units=km
new linecode.LCode_142 nphases=1 rmatrix=[0.879920] xmatrix=[1.444372] units=km
new line.line_142 bus1=bus_93.3 bus2=bus_99.3 linecode=LCode_142 length=1.0 units=km
new linecode.LCode_143 nphases=2 rmatrix=[0.947219 | 0.059160 0.947219] xmatrix=[1.242115 | 1.024695 1.242115] units=km
new line.line_143 bus1=bus_94.2.3 bus2=bus_95.2.3 linecode=LCode_143 length=1.0 units=km
new linecode.LCode_144 nphases=2 rmatrix=[0.838405 | 0.059160 0.838405] xmatrix=[1.242115 | 1.024695 1.242115] units=km
new line.line_144 bus1=bus_95.2.3 bus2=bus_96.2.3 linecode=LCode_144 length=1.0 units=km
new linecode.LCode_145 nphases=2 rmatrix=[0.640146 | 0.059160 0.640146] xmatrix=[1.242115 | 1.024695 1.242115] units=km
new line.line_145 bus1=bus_97.2.3 bus2=bus_99.2.3 linecode=LCode_145 length=1.0 units=km
new linecode.LCode_146 nphases=2 rmatrix=[0.241778 | 0.059160 0.241778] xmatrix=[1.242115 | 1.024695 1.242115] units=km
new line.line_146 bus1=bus_98.2.3 bus2=bus_99.2.3 linecode=LCode_146 length=1.0 units=km
new linecode.LCode_147 nphases=2 rmatrix=[1.587627 | 0.059160 1.587627] xmatrix=[1.366591 | 1.024695 1.366591] units=km
new line.line_147 bus1=bus_99.2.3 bus2=bus_100.2.3 linecode=LCode_147 length=1.0 units=km
new linecode.LCode_148 nphases=1 rmatrix=[0.273665] xmatrix=[1.242115] units=km
new line.line_148 bus1=bus_91.3 bus2=bus_101.3 linecode=LCode_148 length=1.0 units=km
new linecode.LCode_149 nphases=1 rmatrix=[0.820999] xmatrix=[1.242115] units=km
new line.line_149 bus1=bus_100.3 bus2=bus_101.3 linecode=LCode_149 length=1.0 units=km
new linecode.LCode_151 nphases=2 rmatrix=[0.249235 | 0.059160 0.249235] xmatrix=[1.429747 | 1.024695 1.429747] units=km
new line.line_151 bus1=bus_99.2.3 bus2=bus_103.2.3 linecode=LCode_151 length=1.0 units=km
new linecode.LCode_153 nphases=1 rmatrix=[0.748544] xmatrix=[1.242115] units=km
new line.line_153 bus1=bus_102.1 bus2=bus_104.1 linecode=LCode_153 length=1.0 units=km
new linecode.LCode_154 nphases=2 rmatrix=[0.246247 | 0.059160 0.246247] xmatrix=[1.254157 | 1.024695 1.254157] units=km
new line.line_154 bus1=bus_99.2.3 bus2=bus_105.2.3 linecode=LCode_154 length=1.0 units=km
new linecode.LCode_158 nphases=1 rmatrix=[0.721857] xmatrix=[1.420392] units=km
new line.line_158 bus1=bus_104.1 bus2=bus_107.1 linecode=LCode_158 length=1.0 units=km
new linecode.LCode_159 nphases=2 rmatrix=[0.593098 | 0.059160 0.593098] xmatrix=[1.347754 | 1.024695 1.347754] units=km
new line.line_159 bus1=bus_105.2.3 bus2=bus_106.2.3 linecode=LCode_159 length=1.0 units=km
new linecode.LCode_160 nphases=1 rmatrix=[0.753654] xmatrix=[1.242115] units=km
new line.line_160 bus1=bus_107.1 bus2=bus_108.1 linecode=LCode_160 length=1.0 units=km
new linecode.LCode_161 nphases=1 rmatrix=[1.145168] xmatrix=[1.242115] units=km
new line.line_161 bus1=bus_102.1 bus2=bus_109.1 linecode=LCode_161 length=1.0 units=km
new linecode.LCode_162 nphases=1 rmatrix=[0.582220] xmatrix=[1.638487] units=km
new line.line_162 bus1=bus_108.1 bus2=bus_109.1 linecode=LCode_162 length=1.0 units=km
new linecode.LCode_163 nphases=1 rmatrix=[0.636337] xmatrix=[1.242115] units=km
new line.line_163 bus1=bus_109.1 bus2=bus_110.1 linecode=LCode_163 length=1.0 units=km
new linecode.LCode_164 nphases=1 rmatrix=[0.680687] xmatrix=[1.242115] units=km
new line.line_164 bus1=bus_109.1 bus2=bus_111.1 linecode=LCode_164 length=1.0 units=km
new linecode.LCode_165 nphases=1 rmatrix=[0.177155] xmatrix=[1.242115] units=km
new line.line_165 bus1=bus_16.2 bus2=bus_112.2 linecode=LCode_165 length=1.0 units=km
new linecode.LCode_166 nphases=2 rmatrix=[0.913708 | 0.059160 0.913708] xmatrix=[1.242115 | 1.024695 1.242115] units=km
new line.line_166 bus1=bus_31.2.3 bus2=bus_112.2.3 linecode=LCode_166 length=1.0 units=km
new linecode.LCode_167 nphases=2 rmatrix=[0.255141 | 0.059160 0.255141] xmatrix=[1.242115 | 1.024695 1.242115] units=km
new line.line_167 bus1=bus_31.2.3 bus2=bus_113.2.3 linecode=LCode_167 length=1.0 units=km
new linecode.LCode_168 nphases=2 rmatrix=[0.247587 | 0.059160 0.247587] xmatrix=[1.242115 | 1.024695 1.242115] units=km
new line.line_168 bus1=bus_26.2.3 bus2=bus_114.2.3 linecode=LCode_168 length=1.0 units=km
new linecode.LCode_169 nphases=2 rmatrix=[0.481373 | 0.059160 0.481373] xmatrix=[1.424011 | 1.024695 1.424011] units=km
new line.line_169 bus1=bus_113.2.3 bus2=bus_114.2.3 linecode=LCode_169 length=1.0 units=km
new linecode.LCode_170 nphases=1 rmatrix=[0.949069] xmatrix=[1.242115] units=km
new line.line_170 bus1=bus_11.2 bus2=bus_116.2 linecode=LCode_170 length=1.0 units=km
new linecode.LCode_171 nphases=2 rmatrix=[0.768726 | 0.059160 0.768726] xmatrix=[1.242115 | 1.024695 1.242115] units=km
new line.line_171 bus1=bus_74.2.3 bus2=bus_117.2.3 linecode=LCode_171 length=1.0 units=km
new linecode.LCode_172 nphases=2 rmatrix=[0.240571 | 0.059160 0.240571] xmatrix=[1.425302 | 1.024695 1.425302] units=km
new line.line_172 bus1=bus_75.2.3 bus2=bus_117.2.3 linecode=LCode_172 length=1.0 units=km

!---------------- LOADS ----------------

new load.load_0_B bus1=bus_0.2 Phases=1 kv=157.6864406779661 kw=2254.944988187425 kvar=739.6219561254755 vminpu=0.85
new load.load_1_B bus1=bus_1.2 Phases=1 kv=157.6864406779661 kw=2068.8450450568766 kvar=678.5811747786556 vminpu=0.85
new load.load_2_B bus1=bus_2.2 Phases=1 kv=157.6864406779661 kw=2025.345626382266 kvar=664.3133654533832 vminpu=0.85
new load.load_3_B bus1=bus_3.2 Phases=1 kv=157.6864406779661 kw=1353.5683704644737 kvar=443.9704255123474 vminpu=0.85
new load.load_4_B bus1=bus_4.2 Phases=1 kv=157.6864406779661 kw=2137.273776305664 kvar=701.0257986282578 vminpu=0.85
new load.load_5_B bus1=bus_5.2 Phases=1 kv=157.6864406779661 kw=1383.5838737865313 kvar=453.8155106019823 vminpu=0.85
new load.load_6_B bus1=bus_6.2 Phases=1 kv=157.6864406779661 kw=1456.207702269607 kvar=477.6361263444311 vminpu=0.85
new load.load_7_B bus1=bus_7.2 Phases=1 kv=157.6864406779661 kw=2125.453269960948 kvar=697.148672547191 vminpu=0.85
new load.load_8_B bus1=bus_8.2 Phases=1 kv=157.6864406779661 kw=2206.985640332582 kvar=723.8912900290869 vminpu=0.85
new load.load_9_B bus1=bus_9.2 Phases=1 kv=157.6864406779661 kw=2801.240408789915 kvar=918.8068540830922 vminpu=0.85
new load.load_10_B bus1=bus_10.2 Phases=1 kv=157.6864406779661 kw=2157.9488602894626 kvar=707.8072261749437 vminpu=0.85
new load.load_11_B bus1=bus_11.2 Phases=1 kv=157.6864406779661 kw=1873.330806392161 kvar=614.4525044966289 vminpu=0.85
new load.load_12_B bus1=bus_12.2 Phases=1 kv=157.6864406779661 kw=1399.4467880628983 kvar=459.0185464846307 vminpu=0.85
new load.load_13_B bus1=bus_13.2 Phases=1 kv=157.6864406779661 kw=1394.2218964362153 kvar=457.3047820310786 vminpu=0.85
new load.load_14_B bus1=bus_14.2 Phases=1 kv=157.6864406779661 kw=2093.648268866654 kvar=686.7166321882625 vminpu=0.85
new load.load_15_B bus1=bus_15.2 Phases=1 kv=157.6864406779661 kw=2227.494954836647 kvar=730.6183451864202 vminpu=0.85
new load.load_16_B bus1=bus_16.2 Phases=1 kv=157.6864406779661 kw=1671.462753142201 kvar=548.239783030642 vminpu=0.85
new load.load_17_B bus1=bus_17.2 Phases=1 kv=157.6864406779661 kw=2015.1128770682049 kvar=660.9570236783712 vminpu=0.85
new load.load_18_B bus1=bus_18.2 Phases=1 kv=157.6864406779661 kw=2288.790585460604 kvar=750.7233120310781 vminpu=0.85
new load.load_19_B bus1=bus_19.2 Phases=1 kv=157.6864406779661 kw=553.5483103854821 kvar=181.56384580643814 vminpu=0.85
new load.load_19_C bus1=bus_19.3 Phases=1 kv=157.6864406779661 kw=1848.6506032099264 kvar=606.3573978528559 vminpu=0.85
new load.load_20_B bus1=bus_20.2 Phases=1 kv=157.6864406779661 kw=248.78243148318788 kvar=81.60063752648563 vminpu=0.85
new load.load_20_C bus1=bus_20.3 Phases=1 kv=157.6864406779661 kw=1571.621457690164 kvar=515.4918381223738 vminpu=0.85
new load.load_21_B bus1=bus_21.2 Phases=1 kv=157.6864406779661 kw=122.01441317265684 kvar=40.020727520631446 vminpu=0.85
new load.load_21_C bus1=bus_21.3 Phases=1 kv=157.6864406779661 kw=1843.11241217957 kvar=604.540871194899 vminpu=0.85
new load.load_22_B bus1=bus_22.2 Phases=1 kv=157.6864406779661 kw=1313.3894059566303 kvar=430.79172515377473 vminpu=0.85
new load.load_22_C bus1=bus_22.3 Phases=1 kv=157.6864406779661 kw=972.7912160398472 kvar=319.0755188610699 vminpu=0.85
new load.load_23_B bus1=bus_23.2 Phases=1 kv=157.6864406779661 kw=1131.026454898274 kvar=370.9766772066339 vminpu=0.85
new load.load_23_C bus1=bus_23.3 Phases=1 kv=157.6864406779661 kw=709.0400648146731 kvar=232.5651412592128 vminpu=0.85
new load.load_24_B bus1=bus_24.2 Phases=1 kv=157.6864406779661 kw=1302.019647009063 kvar=427.06244421897264 vminpu=0.85
new load.load_24_C bus1=bus_24.3 Phases=1 kv=157.6864406779661 kw=68.58232997965379 kvar=22.495004233326444 vminpu=0.85
new load.load_25_B bus1=bus_25.2 Phases=1 kv=157.6864406779661 kw=607.2488551591864 kvar=199.17762449221314 vminpu=0.85
new load.load_25_C bus1=bus_25.3 Phases=1 kv=157.6864406779661 kw=1398.5454167643152 kvar=458.7228966986954 vminpu=0.85
new load.load_26_B bus1=bus_26.2 Phases=1 kv=157.6864406779661 kw=1356.2922439573897 kvar=444.86385601802385 vminpu=0.85
new load.load_26_C bus1=bus_26.3 Phases=1 kv=157.6864406779661 kw=1245.1154757939253 kvar=408.3978760604075 vminpu=0.85
new load.load_27_B bus1=bus_27.2 Phases=1 kv=157.6864406779661 kw=1608.8039182201967 kvar=527.6876851762246 vminpu=0.85
new load.load_27_C bus1=bus_27.3 Phases=1 kv=157.6864406779661 kw=190.2586977974431 kvar=62.40485287756134 vminpu=0.85
new load.load_28_C bus1=bus_28.3 Phases=1 kv=157.6864406779661 kw=1248.1813660346168 kvar=409.4034880593543 vminpu=0.85
new load.load_29_B bus1=bus_29.2 Phases=1 kv=157.6864406779661 kw=2503.448212544727 kvar=821.1310137146705 vminpu=0.85
new load.load_30_C bus1=bus_30.3 Phases=1 kv=157.6864406779661 kw=2070.014595198216 kvar=678.9647872250148 vminpu=0.85
new load.load_31_B bus1=bus_31.2 Phases=1 kv=157.6864406779661 kw=18.19616802187304 kvar=5.968343111174357 vminpu=0.85
new load.load_31_C bus1=bus_31.3 Phases=1 kv=157.6864406779661 kw=2200.337438269158 kvar=721.7106797522839 vminpu=0.85
new load.load_32_B bus1=bus_32.2 Phases=1 kv=157.6864406779661 kw=2067.120503239005 kvar=678.0155250623936 vminpu=0.85
new load.load_33_B bus1=bus_33.2 Phases=1 kv=157.6864406779661 kw=1944.8052703311216 kvar=637.896128668608 vminpu=0.85
new load.load_34_B bus1=bus_34.2 Phases=1 kv=157.6864406779661 kw=1985.9447818751264 kvar=651.3898884550415 vminpu=0.85
new load.load_35_B bus1=bus_35.2 Phases=1 kv=157.6864406779661 kw=1939.433698159865 kvar=636.1342529964357 vminpu=0.85
new load.load_36_B bus1=bus_36.2 Phases=1 kv=157.6864406779661 kw=1757.9812552572969 kvar=576.6178517243934 vminpu=0.85
new load.load_37_B bus1=bus_37.2 Phases=1 kv=157.6864406779661 kw=2349.534037251012 kvar=770.6471642183319 vminpu=0.85
new load.load_38_B bus1=bus_38.2 Phases=1 kv=157.6864406779661 kw=1777.297673496835 kvar=582.9536369069618 vminpu=0.85
new load.load_39_B bus1=bus_39.2 Phases=1 kv=157.6864406779661 kw=1916.909319936041 kvar=628.7462569390215 vminpu=0.85
new load.load_40_A bus1=bus_40.1 Phases=1 kv=157.6864406779661 kw=1129.523368634958 kvar=370.4836649122662 vminpu=0.85
new load.load_40_B bus1=bus_40.2 Phases=1 kv=157.6864406779661 kw=1737.357675448377 kvar=569.8533175470677 vminpu=0.85
new load.load_41_A bus1=bus_41.1 Phases=1 kv=157.6864406779661 kw=295.18712253222026 kvar=96.82137619056824 vminpu=0.85
new load.load_41_B bus1=bus_41.2 Phases=1 kv=157.6864406779661 kw=1789.437924250694 kvar=586.9356391542277 vminpu=0.85
new load.load_42_A bus1=bus_42.1 Phases=1 kv=157.6864406779661 kw=431.557808307324 kvar=141.55096112480228 vminpu=0.85
new load.load_42_B bus1=bus_42.2 Phases=1 kv=157.6864406779661 kw=967.9479746635752 kvar=317.4869356896527 vminpu=0.85
new load.load_43_A bus1=bus_43.1 Phases=1 kv=157.6864406779661 kw=1157.583844331528 kvar=379.68750094074124 vminpu=0.85
new load.load_43_B bus1=bus_43.2 Phases=1 kv=157.6864406779661 kw=882.8593624282873 kvar=289.57787087647824 vminpu=0.85
new load.load_44_A bus1=bus_44.1 Phases=1 kv=157.6864406779661 kw=838.7455855585972 kvar=275.1085520632199 vminpu=0.85
new load.load_44_B bus1=bus_44.2 Phases=1 kv=157.6864406779661 kw=1109.8408078774517 kvar=364.02778498380417 vminpu=0.85
new load.load_45_A bus1=bus_45.1 Phases=1 kv=157.6864406779661 kw=229.22140000654676 kvar=75.18461920214735 vminpu=0.85
new load.load_45_C bus1=bus_45.3 Phases=1 kv=157.6864406779661 kw=1185.677194990781 kvar=388.90211995697615 vminpu=0.85
new load.load_46_A bus1=bus_46.1 Phases=1 kv=157.6864406779661 kw=965.6161339599593 kvar=316.72209193886664 vminpu=0.85
new load.load_46_C bus1=bus_46.3 Phases=1 kv=157.6864406779661 kw=692.3501159820696 kvar=227.09083804211883 vminpu=0.85
new load.load_47_A bus1=bus_47.1 Phases=1 kv=157.6864406779661 kw=642.6682587084231 kvar=210.79518885636278 vminpu=0.85
new load.load_47_B bus1=bus_47.2 Phases=1 kv=157.6864406779661 kw=1907.9409842546183 kvar=625.8046428355149 vminpu=0.85
new load.load_48_A bus1=bus_48.1 Phases=1 kv=157.6864406779661 kw=951.1265661111248 kvar=311.96951368444894 vminpu=0.85
new load.load_48_B bus1=bus_48.2 Phases=1 kv=157.6864406779661 kw=1282.5688276838066 kvar=420.68257548028856 vminpu=0.85
new load.load_49_A bus1=bus_49.1 Phases=1 kv=157.6864406779661 kw=2040.7300429308543 kvar=669.3594540813202 vminpu=0.85
new load.load_49_B bus1=bus_49.2 Phases=1 kv=157.6864406779661 kw=206.1692020675752 kvar=67.62349827816467 vminpu=0.85
new load.load_50_B bus1=bus_50.2 Phases=1 kv=157.6864406779661 kw=2074.152927556729 kvar=680.3221602386071 vminpu=0.85
new load.load_51_B bus1=bus_51.2 Phases=1 kv=157.6864406779661 kw=1639.0732745881194 kvar=537.6160340649031 vminpu=0.85
new load.load_52_A bus1=bus_52.1 Phases=1 kv=157.6864406779661 kw=2367.7584656821 kvar=776.6247767437288 vminpu=0.85
new load.load_53_A bus1=bus_53.1 Phases=1 kv=157.6864406779661 kw=1657.1740781523297 kvar=543.5530976339642 vminpu=0.85
new load.load_54_A bus1=bus_54.1 Phases=1 kv=157.6864406779661 kw=926.671873643644 kvar=303.9483745551152 vminpu=0.85
new load.load_55_A bus1=bus_55.1 Phases=1 kv=157.6864406779661 kw=1583.207684112684 kvar=519.2921203889604 vminpu=0.85
new load.load_56_A bus1=bus_56.1 Phases=1 kv=157.6864406779661 kw=1769.7310974678703 kvar=580.4717999694615 vminpu=0.85
new load.load_56_B bus1=bus_56.2 Phases=1 kv=157.6864406779661 kw=75.01334977272496 kvar=24.60437872545379 vminpu=0.85
new load.load_57_B bus1=bus_57.2 Phases=1 kv=157.6864406779661 kw=1818.4304796262588 kvar=596.445197317413 vminpu=0.85
new load.load_58_A bus1=bus_58.1 Phases=1 kv=157.6864406779661 kw=1991.9594106284292 kvar=653.3626866861248 vminpu=0.85
new load.load_59_A bus1=bus_59.1 Phases=1 kv=157.6864406779661 kw=1725.6879967301568 kvar=566.0256629274915 vminpu=0.85
new load.load_60_A bus1=bus_60.1 Phases=1 kv=157.6864406779661 kw=2012.9182790308296 kvar=660.2371955221121 vminpu=0.85
new load.load_61_B bus1=bus_61.2 Phases=1 kv=157.6864406779661 kw=1845.2379082482887 kvar=605.2380339054387 vminpu=0.85
new load.load_62_C bus1=bus_62.3 Phases=1 kv=157.6864406779661 kw=1432.2790375329778 kvar=469.7875243108167 vminpu=0.85
new load.load_63_C bus1=bus_63.3 Phases=1 kv=157.6864406779661 kw=1993.8017101474493 kvar=653.9669609283634 vminpu=0.85
new load.load_64_A bus1=bus_64.1 Phases=1 kv=157.6864406779661 kw=698.9139806391221 kvar=229.24378564963206 vminpu=0.85
new load.load_64_C bus1=bus_64.3 Phases=1 kv=157.6864406779661 kw=601.8380602758809 kvar=197.40288377048896 vminpu=0.85
new load.load_65_B bus1=bus_65.2 Phases=1 kv=157.6864406779661 kw=2271.958280883045 kvar=745.2023161296388 vminpu=0.85
new load.load_66_B bus1=bus_66.2 Phases=1 kv=157.6864406779661 kw=2481.3342453034634 kvar=813.877632459536 vminpu=0.85
new load.load_67_A bus1=bus_67.1 Phases=1 kv=157.6864406779661 kw=86.37892755345428 kvar=28.332288237533003 vminpu=0.85
new load.load_67_C bus1=bus_67.3 Phases=1 kv=157.6864406779661 kw=1841.0538411500308 kvar=603.8656598972101 vminpu=0.85
new load.load_69_B bus1=bus_69.2 Phases=1 kv=157.6864406779661 kw=289.3129076370696 kvar=94.89463370495884 vminpu=0.85
new load.load_69_C bus1=bus_69.3 Phases=1 kv=157.6864406779661 kw=1441.341933844369 kvar=472.760154300953 vminpu=0.85
new load.load_70_B bus1=bus_70.2 Phases=1 kv=157.6864406779661 kw=1592.288698799984 kvar=522.2706932063948 vminpu=0.85
new load.load_70_C bus1=bus_70.3 Phases=1 kv=157.6864406779661 kw=990.6969871056845 kvar=324.9486117706645 vminpu=0.85
new load.load_71_B bus1=bus_71.2 Phases=1 kv=157.6864406779661 kw=1488.284659832265 kvar=488.15736842498296 vminpu=0.85
new load.load_71_C bus1=bus_71.3 Phases=1 kv=157.6864406779661 kw=1496.173531543694 kvar=490.74491834633164 vminpu=0.85
new load.load_72_B bus1=bus_72.2 Phases=1 kv=157.6864406779661 kw=1103.464531309396 kvar=361.93636626948194 vminpu=0.85
new load.load_72_C bus1=bus_72.3 Phases=1 kv=157.6864406779661 kw=862.6876291103225 kvar=282.9615423481858 vminpu=0.85
new load.load_73_B bus1=bus_73.2 Phases=1 kv=157.6864406779661 kw=450.353203128844 kvar=147.71585062626082 vminpu=0.85
new load.load_73_C bus1=bus_73.3 Phases=1 kv=157.6864406779661 kw=1254.1539885075256 kvar=411.3625082304684 vminpu=0.85
new load.load_74_B bus1=bus_74.2 Phases=1 kv=157.6864406779661 kw=1474.7006960744334 kvar=483.7018283124142 vminpu=0.85
new load.load_74_C bus1=bus_74.3 Phases=1 kv=157.6864406779661 kw=1229.4115404956588 kvar=403.2469852825761 vminpu=0.85
new load.load_75_B bus1=bus_75.2 Phases=1 kv=157.6864406779661 kw=256.73007549080256 kvar=84.20746476098324 vminpu=0.85
new load.load_75_C bus1=bus_75.3 Phases=1 kv=157.6864406779661 kw=1619.8608380384703 kvar=531.3143548766183 vminpu=0.85
new load.load_76_B bus1=bus_76.2 Phases=1 kv=157.6864406779661 kw=314.6365039074413 kvar=103.20077328164075 vminpu=0.85
new load.load_76_C bus1=bus_76.3 Phases=1 kv=157.6864406779661 kw=1261.2162346605269 kvar=413.67892496865284 vminpu=0.85
new load.load_77_B bus1=bus_77.2 Phases=1 kv=157.6864406779661 kw=1234.1266504411983 kvar=404.79354134471305 vminpu=0.85
new load.load_77_C bus1=bus_77.3 Phases=1 kv=157.6864406779661 kw=994.2497552591332 kvar=326.1139197249957 vminpu=0.85
new load.load_78_B bus1=bus_78.2 Phases=1 kv=157.6864406779661 kw=1753.7909886454124 kvar=575.2434442756953 vminpu=0.85
new load.load_78_C bus1=bus_78.3 Phases=1 kv=157.6864406779661 kw=607.807680120525 kvar=199.3609190795322 vminpu=0.85
new load.load_79_B bus1=bus_79.2 Phases=1 kv=157.6864406779661 kw=1358.8731717617036 kvar=445.7104003378388 vminpu=0.85
new load.load_79_C bus1=bus_79.3 Phases=1 kv=157.6864406779661 kw=129.86667246152064 kvar=42.59626856737877 vminpu=0.85
new load.load_80_A bus1=bus_80.1 Phases=1 kv=157.6864406779661 kw=879.395905096427 kvar=288.4418568716281 vminpu=0.85
new load.load_80_C bus1=bus_80.3 Phases=1 kv=157.6864406779661 kw=1824.3635584524995 kvar=598.3912471724199 vminpu=0.85
new load.load_81_B bus1=bus_81.2 Phases=1 kv=157.6864406779661 kw=1151.9876283854896 kvar=377.85194211044063 vminpu=0.85
new load.load_81_C bus1=bus_81.3 Phases=1 kv=157.6864406779661 kw=425.9422186809247 kvar=139.70904772734332 vminpu=0.85
new load.load_82_C bus1=bus_82.3 Phases=1 kv=157.6864406779661 kw=2476.28921564208 kvar=812.2228627306022 vminpu=0.85
new load.load_83_C bus1=bus_83.3 Phases=1 kv=157.6864406779661 kw=2954.7864786565365 kvar=969.169964999344 vminpu=0.85
new load.load_84_C bus1=bus_84.3 Phases=1 kv=157.6864406779661 kw=1209.007718036892 kvar=396.55453151610055 vminpu=0.85
new load.load_85_C bus1=bus_85.3 Phases=1 kv=157.6864406779661 kw=2166.7336845960685 kvar=710.6886485475105 vminpu=0.85
new load.load_86_C bus1=bus_86.3 Phases=1 kv=157.6864406779661 kw=2061.6745026890253 kvar=676.2292368820004 vminpu=0.85
new load.load_87_C bus1=bus_87.3 Phases=1 kv=157.6864406779661 kw=2589.3833447950897 kvar=849.3177370927895 vminpu=0.85
new load.load_88_C bus1=bus_88.3 Phases=1 kv=157.6864406779661 kw=2391.964574266984 kvar=784.5643803595708 vminpu=0.85
new load.load_89_C bus1=bus_89.3 Phases=1 kv=157.6864406779661 kw=2177.2225374081286 kvar=714.1289922698662 vminpu=0.85
new load.load_90_C bus1=bus_90.3 Phases=1 kv=157.6864406779661 kw=2535.0159069528454 kvar=831.4852174805334 vminpu=0.85
new load.load_91_C bus1=bus_91.3 Phases=1 kv=157.6864406779661 kw=1936.9085031021784 kvar=635.3059890175145 vminpu=0.85
new load.load_92_C bus1=bus_92.3 Phases=1 kv=157.6864406779661 kw=1221.160061155634 kvar=400.54050005904793 vminpu=0.85
new load.load_93_C bus1=bus_93.3 Phases=1 kv=157.6864406779661 kw=2263.694959600324 kvar=742.4919467489063 vminpu=0.85
new load.load_94_B bus1=bus_94.2 Phases=1 kv=157.6864406779661 kw=1930.139625696216 kvar=633.0857972283588 vminpu=0.85
new load.load_94_C bus1=bus_94.3 Phases=1 kv=157.6864406779661 kw=288.5544862156875 kvar=94.6458714787455 vminpu=0.85
new load.load_95_B bus1=bus_95.2 Phases=1 kv=157.6864406779661 kw=1038.8534661977358 kvar=340.74393691285735 vminpu=0.85
new load.load_95_C bus1=bus_95.3 Phases=1 kv=157.6864406779661 kw=597.6936883354443 kvar=196.04352977402576 vminpu=0.85
new load.load_96_B bus1=bus_96.2 Phases=1 kv=157.6864406779661 kw=622.531378416217 kvar=204.19029212051916 vminpu=0.85
new load.load_96_C bus1=bus_96.3 Phases=1 kv=157.6864406779661 kw=1672.359876197394 kvar=548.5340393927453 vminpu=0.85
new load.load_97_B bus1=bus_97.2 Phases=1 kv=157.6864406779661 kw=885.1131017998873 kvar=290.3170973903631 vminpu=0.85
new load.load_97_C bus1=bus_97.3 Phases=1 kv=157.6864406779661 kw=1380.379426901259 kvar=452.76445202361293 vminpu=0.85
new load.load_98_B bus1=bus_98.2 Phases=1 kv=157.6864406779661 kw=1732.9268000078132 kvar=568.3999904025627 vminpu=0.85
new load.load_98_C bus1=bus_98.3 Phases=1 kv=157.6864406779661 kw=284.21052290555616 kvar=93.22105151302243 vminpu=0.85
new load.load_99_B bus1=bus_99.2 Phases=1 kv=157.6864406779661 kw=780.9468927462935 kvar=256.1505808207843 vminpu=0.85
new load.load_99_C bus1=bus_99.3 Phases=1 kv=157.6864406779661 kw=1426.2058784115366 kvar=467.795528118984 vminpu=0.85
new load.load_100_B bus1=bus_100.2 Phases=1 kv=157.6864406779661 kw=2304.63795112986 kvar=755.9212479705941 vminpu=0.85
new load.load_100_C bus1=bus_100.3 Phases=1 kv=157.6864406779661 kw=214.86450972912505 kvar=70.47555919115302 vminpu=0.85
new load.load_101_C bus1=bus_101.3 Phases=1 kv=157.6864406779661 kw=1822.093375666277 kvar=597.6466272185389 vminpu=0.85
new load.load_102_A bus1=bus_102.1 Phases=1 kv=157.6864406779661 kw=2880.6717276037584 kvar=944.8603266540329 vminpu=0.85
new load.load_103_B bus1=bus_103.2 Phases=1 kv=157.6864406779661 kw=638.1154739406511 kvar=209.30187545253358 vminpu=0.85
new load.load_103_C bus1=bus_103.3 Phases=1 kv=157.6864406779661 kw=987.9853519369929 kvar=324.05919543533366 vminpu=0.85
new load.load_104_A bus1=bus_104.1 Phases=1 kv=157.6864406779661 kw=1134.9196138396987 kvar=372.2536333394212 vminpu=0.85
new load.load_105_B bus1=bus_105.2 Phases=1 kv=157.6864406779661 kw=2399.2721316734487 kvar=786.9612591888912 vminpu=0.85
new load.load_105_C bus1=bus_105.3 Phases=1 kv=157.6864406779661 kw=717.9603030156974 kvar=235.49097938914875 vminpu=0.85
new load.load_106_B bus1=bus_106.2 Phases=1 kv=157.6864406779661 kw=1231.8700912433394 kvar=404.0533899278153 vminpu=0.85
new load.load_106_C bus1=bus_106.3 Phases=1 kv=157.6864406779661 kw=283.21991849701084 kvar=92.89613326701956 vminpu=0.85
new load.load_107_A bus1=bus_107.1 Phases=1 kv=157.6864406779661 kw=2171.2137679051084 kvar=712.1581158728756 vminpu=0.85
new load.load_108_A bus1=bus_108.1 Phases=1 kv=157.6864406779661 kw=1713.9214063522206 kvar=562.1662212835284 vminpu=0.85
new load.load_109_A bus1=bus_109.1 Phases=1 kv=157.6864406779661 kw=2470.150827914911 kvar=810.2094715560909 vminpu=0.85
new load.load_110_A bus1=bus_110.1 Phases=1 kv=157.6864406779661 kw=2507.1184915939843 kvar=822.3348652428269 vminpu=0.85
new load.load_111_A bus1=bus_111.1 Phases=1 kv=157.6864406779661 kw=2167.956762393391 kvar=711.0898180650322 vminpu=0.85
new load.load_112_B bus1=bus_112.2 Phases=1 kv=157.6864406779661 kw=1575.4898048330908 kvar=516.7606559852538 vminpu=0.85
new load.load_112_C bus1=bus_112.3 Phases=1 kv=157.6864406779661 kw=280.3438466508989 kvar=91.95278170149484 vminpu=0.85
new load.load_113_B bus1=bus_113.2 Phases=1 kv=157.6864406779661 kw=120.62579216503342 kvar=39.56525983013096 vminpu=0.85
new load.load_113_C bus1=bus_113.3 Phases=1 kv=157.6864406779661 kw=1904.3014785584455 kvar=624.6108849671701 vminpu=0.85
new load.load_114_B bus1=bus_114.2 Phases=1 kv=157.6864406779661 kw=521.8407574971054 kvar=171.16376845905057 vminpu=0.85
new load.load_114_C bus1=bus_114.3 Phases=1 kv=157.6864406779661 kw=1492.562529422308 kvar=489.560509650517 vminpu=0.85
new load.load_115_A bus1=bus_115.1 Phases=1 kv=157.6864406779661 kw=806.7923449046567 kvar=264.6278891287274 vminpu=0.85
new load.load_115_C bus1=bus_115.3 Phases=1 kv=157.6864406779661 kw=1310.980778725835 kvar=430.0016954220739 vminpu=0.85
new load.load_116_B bus1=bus_116.2 Phases=1 kv=157.6864406779661 kw=2087.2437090027547 kvar=684.6159365529036 vminpu=0.85
new load.load_117_B bus1=bus_117.2 Phases=1 kv=157.6864406779661 kw=1892.6229345220215 kvar=620.780322523223 vminpu=0.85
new load.load_117_C bus1=bus_117.3 Phases=1 kv=157.6864406779661 kw=375.72831304462113 kvar=123.23888667863574 vminpu=0.85

!---------------- SOLUTION ----------------

set controlmode=off
Set Voltagebases=[157.6864406779661]
calcv
Solve